@<TRIPOS>MOLECULE
ADP
   39    41     1     0     0
SMALL
bcc


@<TRIPOS>ATOM
      1 PB          53.7730    63.1560    35.1690 p5         0 ADP       1.399900
      2 O1B         54.0550    62.0070    36.0620 o          0 ADP      -0.913833
      3 O2B         52.9010    62.8570    34.0180 o          0 ADP      -0.913833
      4 O3B         53.4980    64.4410    35.8180 o          0 ADP      -0.913833
      5 PA          55.5950    64.3030    33.1270 p5         0 ADP       1.565800
      6 O1A         55.9370    63.3460    32.1010 o          0 ADP      -0.675500
      7 O2A         54.7570    65.4540    32.8160 o          0 ADP      -0.675500
      8 O3A         55.0990    63.4490    34.3410 os         0 ADP      -0.769800
      9 O5'         57.0110    64.9050    33.6750 os         0 ADP      -0.592200
     10 C5'         57.1750    66.2710    34.0950 c3         0 ADP       0.183400
     11 C4'         58.2160    67.1050    33.3600 c3         0 ADP       0.078100
     12 O4'         59.4150    66.3740    33.4450 os         0 ADP      -0.416600
     13 C3'         58.0240    67.2870    31.8840 c3         0 ADP       0.106100
     14 O3'         58.4520    68.5690    31.6070 oh         0 ADP      -0.589800
     15 C2'         58.8600    66.2450    31.2110 c3         0 ADP       0.104100
     16 O2'         59.1980    66.5680    29.8840 oh         0 ADP      -0.625800
     17 C1'         59.9900    66.1010    32.1630 c3         0 ADP       0.237800
     18 N9          60.4950    64.7020    32.3390 na         0 ADP      -0.288000
     19 C8          59.8550    63.5450    32.1440 cc         0 ADP       0.278700
     20 N7          60.6340    62.4550    32.3190 nd         0 ADP      -0.746100
     21 C5          61.7760    62.9900    32.6710 ca         0 ADP      -0.135200
     22 C6          62.9200    62.2720    32.9630 ca         0 ADP       0.565200
     23 N6          62.8490    60.9490    32.9060 nh         0 ADP      -0.896500
     24 N1          64.0000    62.9770    33.3090 nb         0 ADP      -0.788000
     25 C2          63.9590    64.3060    33.3600 ca         0 ADP       0.576900
     26 N3          62.8780    64.9720    33.0610 nb         0 ADP      -0.692000
     27 C4          61.7380    64.3550    32.6940 ca         0 ADP       0.403800
     28 HO3         56.2100    66.7290    33.8800 h1         0 ADP       0.064200
     29 HO2         57.5220    66.1890    35.1250 h1         0 ADP       0.064200
     30 HN61        58.2400    68.0900    33.8270 h1         0 ADP       0.040700
     31 HN62        57.0000    67.2460    31.5140 h1         0 ADP       0.162700
     32 H           58.6090    69.0390    32.4290 ho         0 ADP       0.382000
     33 H1          58.3700    65.2990    30.9800 h1         0 ADP       0.089700
     34 H2          59.3260    65.7610    29.3810 ho         0 ADP       0.437000
     35 H3          60.7920    66.7570    31.8250 h2         0 ADP       0.014700
     36 H4          58.8010    63.4950    31.8690 h5         0 ADP       0.151800
     37 H5          61.9490    60.4920    32.8840 hn         0 ADP       0.359800
     38 H6          63.6950    60.3980    32.8840 hn         0 ADP       0.359800
     39 H7          64.8430    64.8700    33.6580 h5         0 ADP       0.007100
@<TRIPOS>BOND
     1     1     2 1   
     2     1     3 1   
     3     1     4 1   
     4     1     8 1   
     5     5     6 1   
     6     5     7 1   
     7     5     8 1   
     8     5     9 1   
     9     9    10 1   
    10    10    11 1   
    11    10    28 1   
    12    10    29 1   
    13    11    12 1   
    14    11    13 1   
    15    11    30 1   
    16    12    17 1   
    17    13    14 1   
    18    13    15 1   
    19    13    31 1   
    20    14    32 1   
    21    15    16 1   
    22    15    17 1   
    23    15    33 1   
    24    16    34 1   
    25    17    18 1   
    26    17    35 1   
    27    18    19 1   
    28    18    27 1   
    29    19    20 2   
    30    19    36 1   
    31    20    21 1   
    32    21    22 ar  
    33    21    27 ar  
    34    22    23 1   
    35    22    24 ar  
    36    23    37 1   
    37    23    38 1   
    38    24    25 ar  
    39    25    26 ar  
    40    25    39 1   
    41    26    27 ar  
@<TRIPOS>SUBSTRUCTURE
     1 ADP         1 TEMP              0 ****  ****    0 ROOT
