@<TRIPOS>MOLECULE
AMP
   35    37     1     0     0
SMALL
bcc


@<TRIPOS>ATOM
      1 P           43.1390    40.6680    35.4390 p5         0 AMP       1.316900
      2 O1P         42.5920    41.9400    34.9240 o          0 AMP      -0.908500
      3 O2P         44.2920    40.7230    36.3800 o          0 AMP      -0.908500
      4 O3P         41.9770    39.8690    36.0460 o          0 AMP      -0.908500
      5 O5'         43.6680    39.8040    34.1700 os         0 AMP      -0.584200
      6 C5'         44.3020    40.4270    33.0020 c3         0 AMP       0.195400
      7 C4'         44.4740    39.4280    31.8540 c3         0 AMP       0.068100
      8 O4'         44.7250    38.2340    32.5350 os         0 AMP      -0.448600
      9 C3'         43.1960    39.1740    31.2380 c3         0 AMP       0.021100
     10 O3'         43.2610    39.9490    30.0550 oh         0 AMP      -0.602800
     11 C2'         43.4560    37.7490    30.7710 c3         0 AMP       0.087100
     12 O2'         44.3030    37.7180    29.6750 oh         0 AMP      -0.631800
     13 C1'         44.2360    37.1180    31.8390 c3         0 AMP       0.242800
     14 N9          43.4070    36.2130    32.6400 na         0 AMP      -0.254000
     15 C8          43.1110    36.2720    33.9480 cc         0 AMP       0.479700
     16 N7          42.1860    35.3810    34.2860 nd         0 AMP      -0.606100
     17 C5          41.8470    34.8290    33.1430 ca         0 AMP      -0.192200
     18 C6          40.8590    33.8580    33.0060 ca         0 AMP       0.679200
     19 N6          40.1840    33.3830    34.0470 nh         0 AMP      -0.924500
     20 N1          40.6780    33.4820    31.7710 nb         0 AMP      -0.803000
     21 C2          41.3470    33.9970    30.7290 ca         0 AMP       0.630900
     22 N3          42.2740    34.9530    30.8400 nb         0 AMP      -0.711000
     23 C4          42.5420    35.3780    32.0960 ca         0 AMP       0.430800
     24 HO3         43.6010    41.1890    32.6610 h1         0 AMP       0.023200
     25 HO2         45.3010    40.7130    33.3300 h1         0 AMP       0.023200
     26 HN61        45.2150    39.7050    31.1040 h1         0 AMP       0.042700
     27 HN62        42.2990    39.3960    31.8170 h1         0 AMP       0.258700
     28 H           43.3030    39.3670    29.2930 ho         0 AMP       0.364000
     29 H1          42.5400    37.2370    30.4770 h1         0 AMP       0.111700
     30 H2          44.4860    36.8060    29.4380 ho         0 AMP       0.419000
     31 H3          45.0690    36.4920    31.5200 h2         0 AMP       0.083700
     32 H4          43.5690    36.9640    34.6550 h5         0 AMP       0.181800
     33 H5          40.6610    33.2020    34.9190 hn         0 AMP       0.401800
     34 H6          39.1940    33.2020    33.9670 hn         0 AMP       0.401800
     35 H7          41.1240    33.6160    29.7320 h5         0 AMP       0.022100
@<TRIPOS>BOND
     1     1     2 1   
     2     1     3 1   
     3     1     4 1   
     4     1     5 1   
     5     5     6 1   
     6     6     7 1   
     7     6    24 1   
     8     6    25 1   
     9     7     8 1   
    10     7     9 1   
    11     7    26 1   
    12     8    13 1   
    13     9    10 1   
    14     9    11 1   
    15     9    27 1   
    16    10    28 1   
    17    11    12 1   
    18    11    13 1   
    19    11    29 1   
    20    12    30 1   
    21    13    14 1   
    22    13    31 1   
    23    14    15 1   
    24    14    23 1   
    25    15    16 2   
    26    15    32 1   
    27    16    17 1   
    28    17    18 ar  
    29    17    23 ar  
    30    18    19 1   
    31    18    20 ar  
    32    19    33 1   
    33    19    34 1   
    34    20    21 ar  
    35    21    22 ar  
    36    21    35 1   
    37    22    23 ar  
@<TRIPOS>SUBSTRUCTURE
     1 AMP         1 TEMP              0 ****  ****    0 ROOT
