@<TRIPOS>MOLECULE
AP5
   81    86     1     0     0
SMALL
bcc


@<TRIPOS>ATOM
      1 PA          58.1450    43.2110    11.4360 p5         1 AP5       1.670800
      2 O1A         58.5640    44.2230    10.4710 o          1 AP5      -0.707500
      3 O2A         57.3370    43.6200    12.5610 o          1 AP5      -0.707500
      4 O3A         57.7360    41.8870    10.6170 os         1 AP5      -0.799800
      5 PB          56.3110    41.5040    10.0080 p5         1 AP5       1.715800
      6 O1B         56.7470    40.5570     8.9450 o          1 AP5      -0.880250
      7 O2B         55.6700    42.7290     9.5780 o          1 AP5      -0.880250
      8 O3B         55.5470    40.7060    11.1870 os         1 AP5      -0.829300
      9 PG          53.9520    40.5180    11.2920 p5         1 AP5       1.764800
     10 O1G         53.7080    39.2320    12.2070 o          1 AP5      -0.921000
     11 O2G         53.5520    40.1140     9.9300 o          1 AP5      -0.921000
     12 O3G         53.3250    41.7350    11.8480 os         1 AP5      -0.829300
     13 PD          52.0960    42.0290    12.8510 p5         1 AP5       1.715800
     14 O1D         52.2010    43.4780    13.1640 o          1 AP5      -0.880250
     15 O2D         52.3590    41.1310    14.0050 o          1 AP5      -0.880250
     16 O3D         50.0380    41.9740    12.2980 os         1 AP5      -0.799800
     17 PE          49.9730    40.6960    11.5670 p5         1 AP5       1.670800
     18 O1E         51.2150    39.6330    11.5210 o          1 AP5      -0.707500
     19 O2E         49.5400    40.9720    10.1850 o          1 AP5      -0.707500
     20 O5F         59.4550    42.6280    12.0990 os         1 AP5      -0.586700
     21 C5F         59.3770    41.8270    13.2550 c3         1 AP5       0.198400
     22 C4F         60.3800    42.2660    14.3230 c3         1 AP5       0.081100
     23 O4F         61.7470    41.9990    13.9310 os         1 AP5      -0.425100
     24 C3F         60.3070    43.7900    14.6960 c3         1 AP5       0.115100
     25 O3F         60.7410    43.9480    16.0300 oh         1 AP5      -0.617300
     26 C2F         61.3780    44.3930    13.7740 c3         1 AP5       0.102100
     27 O2F         61.9950    45.5570    14.3680 oh         1 AP5      -0.612300
     28 C1F         62.3490    43.2110    13.4710 c3         1 AP5       0.240300
     29 N9A         63.1130    43.1620    12.2410 na         1 AP5      -0.287500
     30 C8A         62.6410    43.5480    11.0080 cc         1 AP5       0.306200
     31 N7A         63.4990    43.3330    10.0380 nd         1 AP5      -0.754600
     32 C5A         64.6300    42.7570    10.6040 ca         1 AP5      -0.124700
     33 C6A         65.8750    42.3570    10.0760 ca         1 AP5       0.555200
     34 N6A         66.1960    42.5430     8.7950 nh         1 AP5      -0.895000
     35 N1A         66.7850    41.9020    10.9560 nb         1 AP5      -0.784000
     36 C2A         66.4320    41.7570    12.2260 ca         1 AP5       0.572400
     37 N3A         65.3050    42.0840    12.8590 nb         1 AP5      -0.700000
     38 C4A         64.3860    42.6310    12.0100 ca         1 AP5       0.395300
     39 O5J         48.6890    39.9170    12.1040 os         1 AP5      -0.586700
     40 C5J         48.4430    39.6010    13.4710 c3         1 AP5       0.198400
     41 C4J         47.0080    39.0700    13.5410 c3         1 AP5       0.081100
     42 O4J         46.1120    39.9200    12.7630 os         1 AP5      -0.425100
     43 C3J         46.9190    37.6800    12.8690 c3         1 AP5       0.115100
     44 O3J         47.3100    36.6370    13.7910 oh         1 AP5      -0.617300
     45 C2J         45.4400    37.6180    12.4700 c3         1 AP5       0.102100
     46 O2J         44.6380    37.4570    13.6290 oh         1 AP5      -0.612300
     47 C1J         45.3340    39.0690    11.9450 c3         1 AP5       0.240300
     48 N9B         45.2430    39.3820    10.5320 na         1 AP5      -0.287500
     49 C8B         45.9470    40.3370     9.9070 cc         1 AP5       0.306200
     50 N7B         45.7350    40.3580     8.6250 nd         1 AP5      -0.754600
     51 C5B         44.8720    39.3670     8.3340 ca         1 AP5      -0.124700
     52 C6B         44.3860    38.8880     7.1260 ca         1 AP5       0.555200
     53 N6B         44.6770    39.4510     5.9350 nh         1 AP5      -0.895000
     54 N1B         43.6180    37.8100     7.2360 nb         1 AP5      -0.784000
     55 C2B         43.2440    37.3770     8.4300 ca         1 AP5       0.572400
     56 N3B         43.6740    37.7030     9.6340 nb         1 AP5      -0.700000
     57 C4B         44.5430    38.7290     9.5440 ca         1 AP5       0.395300
     58 H1          46.6290    41.0320    10.3960 h5         1 AP5       0.211800
     59 H2          58.3750    42.0050    13.6470 h1         1 AP5       0.045700
     60 H3          59.6620    40.8300    12.9210 h1         1 AP5       0.045700
     61 H4          60.1520    41.6240    15.1740 h1         1 AP5       0.068200
     62 H5          59.3250    44.2640    14.6710 h1         1 AP5       0.097700
     63 H6          60.7820    43.0890    16.4560 ho         1 AP5       0.433500
     64 H7          60.9910    44.8570    12.8660 h1         1 AP5       0.097200
     65 H8          62.3540    46.1160    13.6750 ho         1 AP5       0.421000
     66 H9          63.2910    43.3050    14.0120 h2         1 AP5       0.036700
     67 H10         61.6640    43.9890    10.8140 h5         1 AP5       0.211800
     68 H11         65.4720    42.7310     8.1160 hn         1 AP5       0.357800
     69 H12         67.1620    42.4960     8.5040 hn         1 AP5       0.357800
     70 H13         67.1920    41.2920    12.8540 h5         1 AP5       0.006100
     71 H14         49.1270    38.7910    13.7240 h1         1 AP5       0.045700
     72 H15         48.4910    40.5450    14.0150 h1         1 AP5       0.045700
     73 H16         46.6980    39.0750    14.5860 h1         1 AP5       0.068200
     74 H17         47.6070    37.4860    12.0460 h1         1 AP5       0.097700
     75 H18         47.7080    35.9110    13.3030 ho         1 AP5       0.433500
     76 H19         45.0930    36.7960    11.8430 h1         1 AP5       0.097200
     77 H20         44.4130    36.5300    13.7360 ho         1 AP5       0.421000
     78 H21         44.3120    39.4390    12.0340 h2         1 AP5       0.036700
     79 H22         43.9320    39.7770     5.3350 hn         1 AP5       0.357800
     80 H23         45.6380    39.5450     5.6410 hn         1 AP5       0.357800
     81 H24         42.4510    36.6290     8.4210 h5         1 AP5       0.006100
@<TRIPOS>BOND
     1     1     2 1   
     2     1     3 1   
     3     1     4 1   
     4     1    20 1   
     5     4     5 1   
     6     5     6 1   
     7     5     7 1   
     8     5     8 1   
     9     8     9 1   
    10     9    10 1   
    11     9    11 1   
    12     9    12 1   
    13    12    13 1   
    14    13    14 1   
    15    13    15 1   
    16    13    16 1   
    17    16    17 1   
    18    17    18 1   
    19    17    19 1   
    20    17    39 1   
    21    20    21 1   
    22    21    22 1   
    23    21    59 1   
    24    21    60 1   
    25    22    23 1   
    26    22    24 1   
    27    22    61 1   
    28    23    28 1   
    29    24    25 1   
    30    24    26 1   
    31    24    62 1   
    32    25    63 1   
    33    26    27 1   
    34    26    28 1   
    35    26    64 1   
    36    27    65 1   
    37    28    29 1   
    38    28    66 1   
    39    29    30 1   
    40    29    38 1   
    41    30    31 2   
    42    30    67 1   
    43    31    32 1   
    44    32    33 ar  
    45    32    38 ar  
    46    33    34 1   
    47    33    35 ar  
    48    34    68 1   
    49    34    69 1   
    50    35    36 ar  
    51    36    37 ar  
    52    36    70 1   
    53    37    38 ar  
    54    39    40 1   
    55    40    41 1   
    56    40    71 1   
    57    40    72 1   
    58    41    42 1   
    59    41    43 1   
    60    41    73 1   
    61    42    47 1   
    62    43    44 1   
    63    43    45 1   
    64    43    74 1   
    65    44    75 1   
    66    45    46 1   
    67    45    47 1   
    68    45    76 1   
    69    46    77 1   
    70    47    48 1   
    71    47    78 1   
    72    48    49 1   
    73    48    57 1   
    74    49    50 2   
    75    49    58 1   
    76    50    51 1   
    77    51    52 ar  
    78    51    57 ar  
    79    52    53 1   
    80    52    54 ar  
    81    53    79 1   
    82    53    80 1   
    83    54    55 ar  
    84    55    56 ar  
    85    55    81 1   
    86    56    57 ar  
@<TRIPOS>SUBSTRUCTURE
     1 AP5         1 TEMP              0 ****  ****    0 ROOT
