@<TRIPOS>MOLECULE
GCP
   49    51     1     0     0
SMALL
bcc


@<TRIPOS>ATOM
      1 O1G         56.5810    43.3700     7.7750 o          1 GCP      -0.862300
      2 PG          55.2120    42.9510     8.0660 p5         1 GCP       1.621300
      3 O2G         54.7210    41.6040     7.3860 oh         1 GCP      -0.799400
      4 HOG2        54.8140    41.4830     6.4310 ho         1 GCP       0.490500
      5 O3G         54.2540    44.1610     7.6360 oh         1 GCP      -0.799400
      6 HOG3        53.2960    44.0800     7.7410 ho         1 GCP       0.490500
      7 C3B         54.8590    42.7590     9.8120 c3         1 GCP      -0.667800
      8 H3B1        54.9510    43.7300    10.3030 hc         1 GCP       0.147200
      9 H3B2        53.8260    42.4260     9.9330 hc         1 GCP       0.147200
     10 PB          55.9540    41.5840    10.6240 p5         1 GCP       1.744300
     11 O1B         56.4850    40.5270     9.7610 o          1 GCP      -0.862300
     12 O2B         57.1610    42.3960    11.3000 oh         1 GCP      -0.812400
     13 HOB2        56.9720    43.1100    11.9240 ho         1 GCP       0.479000
     14 O3A         55.0610    40.8690    11.7620 os         1 GCP      -0.822800
     15 PA          54.4570    41.6050    13.0650 p5         1 GCP       1.593800
     16 O1A         54.7540    40.7600    14.2820 o          1 GCP      -0.848000
     17 O2A         54.7880    43.0750    13.0500 o          1 GCP      -0.848000
     18 O5'         52.8860    41.4750    12.7490 os         1 GCP      -0.597200
     19 C5'         52.2560    40.2090    12.8560 c3         1 GCP       0.169400
     20 H5'2        52.9540    39.4730    13.2630 h1         1 GCP       0.049200
     21 H5'1        51.3880    40.2710    13.5140 h1         1 GCP       0.049200
     22 C4'         51.8270    39.8070    11.4490 c3         1 GCP       0.109100
     23 C3'         50.7980    40.7590    10.8600 c3         1 GCP       0.094100
     24 O3'         51.1980    41.1600     9.5430 oh         1 GCP      -0.609800
     25 HO3'        50.5420    41.7680     9.1770 ho         1 GCP       0.410000
     26 C2'         49.5180    39.9460    10.8330 c3         1 GCP       0.084100
     27 O2'         48.6690    40.3230     9.7440 oh         1 GCP      -0.612800
     28 HO2'        48.4570    41.2640     9.8110 ho         1 GCP       0.423000
     29 H2'         48.9880    40.1020    11.7820 h1         1 GCP       0.091700
     30 H3'         50.6740    41.6300    11.5200 h1         1 GCP       0.143700
     31 H4'         52.7120    39.8020    10.7990 h1         1 GCP       0.072700
     32 O4'         51.2420    38.5060    11.4770 os         1 GCP      -0.424600
     33 C1'         49.9970    38.4930    10.7810 c3         1 GCP       0.256800
     34 H1'         50.1450    38.1960     9.7330 h2         1 GCP       0.098700
     35 N9          49.0690    37.5620    11.4590 na         1 GCP      -0.227900
     36 C8          48.4580    36.4790    10.9320 cc         1 GCP       0.396400
     37 H8          48.5810    36.1410     9.9100 h5         1 GCP       0.059100
     38 N7          47.6590    35.8780    11.8540 nd         1 GCP      -0.593000
     39 C5          47.7570    36.5900    12.9880 cd         1 GCP       0.155800
     40 C6          47.1840    36.5080    14.3460 c          1 GCP       0.651000
     41 O6          46.3850    35.5850    14.6260 o          1 GCP      -0.630500
     42 N1          47.5460    37.4420    15.2390 n          1 GCP      -0.504400
     43 HN1         47.1560    37.3980    16.2030 hn         1 GCP       0.333500
     44 C2          48.4090    38.4300    14.9300 cd         1 GCP       0.691800
     45 N2          48.7420    39.3440    15.8660 nh         1 GCP      -0.839800
     46 HN21        49.3840    40.0910    15.6370 hn         1 GCP       0.428300
     47 HN22        48.3470    39.2850    16.7930 hn         1 GCP       0.428300
     48 N3          48.9720    38.5640    13.7070 nc         1 GCP      -0.685100
     49 C4          48.6840    37.6900    12.7210 cc         1 GCP       0.136800
@<TRIPOS>BOND
     1     1     2 2   
     2     2     3 1   
     3     2     5 1   
     4     2     7 1   
     5     3     4 1   
     6     5     6 1   
     7     7     8 1   
     8     7     9 1   
     9     7    10 1   
    10    10    11 2   
    11    10    12 1   
    12    10    14 1   
    13    12    13 1   
    14    14    15 1   
    15    15    16 1   
    16    15    17 1   
    17    15    18 1   
    18    18    19 1   
    19    19    20 1   
    20    19    21 1   
    21    19    22 1   
    22    22    23 1   
    23    22    31 1   
    24    22    32 1   
    25    23    24 1   
    26    23    26 1   
    27    23    30 1   
    28    24    25 1   
    29    26    27 1   
    30    26    29 1   
    31    26    33 1   
    32    27    28 1   
    33    32    33 1   
    34    33    34 1   
    35    33    35 1   
    36    35    36 1   
    37    35    49 1   
    38    36    37 1   
    39    36    38 2   
    40    38    39 1   
    41    39    40 1   
    42    39    49 2   
    43    40    41 2   
    44    40    42 1   
    45    42    43 1   
    46    42    44 1   
    47    44    45 1   
    48    44    48 2   
    49    45    46 1   
    50    45    47 1   
    51    48    49 1   
@<TRIPOS>SUBSTRUCTURE
     1 GCP         1 TEMP              0 ****  ****    0 ROOT
